power-flow-agent/results/ieee14/2026-09-21/gpt-5.6-sol/plan_act_nogate/traces/40_case14-plain-036-s0.transcript.txt
==============================================================================
TRANSCRIPT  plan_act_nogate  |  openrouter:openai/gpt-5.6-sol  |  case14  |  case14-plain-036-s0  run 0
==============================================================================
date: 2026-09-21   seed: 0   difficulty: plain   tool variant: load_split

[system]   (hash 7da5e2a37ec4, from methods/plan_act_nogate/method.json prompt_files)
You are a power system power-flow analysis assistant. You help the user complete power system analysis tasks from natural-language requests.

## What you can do
You complete tasks by calling tool functions:
1. Load an IEEE standard test system (14, 30, 57, 118, 300 buses)
2. Run AC power flow
3. Modify the load at a bus and re-solve
4. Disconnect or reconnect a line and re-solve
5. Query the network status
6. Run an N-1 contingency analysis (disconnect branches one at a time and rank the worst cases)
7. Generate remedial-action suggestions (what-if load shedding or voltage adjustment) to reduce violation risk

## Key rules
- Never fabricate any numerical result. Every voltage, power, loss, or loading value must come from a tool return value.
- If a tool reports an error or a non-converged power flow, say so explicitly and do not report numbers for that state.
- If the request is ambiguous, state the interpretation you are using.
- Bus and line identifiers in the request are MATPOWER 1-based ids; pass them to the tools as given, unless the request itself states a different indexing convention for that identifier (e.g. "(0-based)"), in which case convert it to the MATPOWER 1-based id before calling any tool.
- After a network modification, re-solve before reporting any value.
- Always reply in English.

## Reply format
After each analysis, reply in this structure:
1. One-sentence summary
2. Key numbers (total load, total generation, total losses, voltage range) taken from the tool outputs
3. Violations, if any
4. Suggested next step

[user]
Load case14 and set the active load at bus 2 to 21.7 MW.

[planner output]
[
 {
  "tool": "load_case",
  "args": {
   "case_name": "case14"
  }
 },
 {
  "tool": "set_active_load",
  "args": {
   "bus_id": 2,
   "p_mw": 21.7
  }
 }
]

--- round 1 ---
[assistant]   (480 in / 44 out tokens, 2.0 s)
{"plan":[{"tool":"load_case","args":{"case_name":"case14"}},{"tool":"set_active_load","args":{"bus_id":2,"p_mw":21.7}}]}

--- round 2 ---
[tool load_case]   (gate: not applied)
{"case_name": "case14", "n_buses": 14, "n_generators": 5, "n_lines": 20, "n_loads": 11, "total_load_mw": 258.53382777664655, "total_gen_capacity_mw": 772.4000000000001}
[tool set_active_load]   (gate: pass)
{"case_name": "case14", "converged": true, "bus_voltages": [{"bus_id": 1, "vm_pu": 1.06, "va_deg": 0.0, "is_violation": true, "violation_type": "overvoltage"}, {"bus_id": 2, "vm_pu": 1.045, "va_deg": -4.984785735058058, "is_violation": false, "violation_type": null}, {"bus_id": 3, "vm_pu": 1.0099999999999998, "va_deg": -12.420418354887932, "is_violation": false, "violation_type": null}, {"bus_id": 4, "vm_pu": 1.0163390594055113, "va_deg": -10.422060007873299, "is_violation": false, "violation_type": null}, {"bus_id": 5, "vm_pu": 1.0186392083580833, "va_deg": -8.855425807439468, "is_violation": false, "violation_type": null}, {"bus_id": 6, "vm_pu": 1.0699999999999998, "va_deg": -14.401094340951042, "is_violation": true, "violation_type": "overvoltage"}, {"bus_id": 7, "vm_pu": 1.059735474745424, "va_deg": -13.61162532219524, "is_violation": true, "violation_type": "overvoltage"}, {"bus_id": 8, "vm_pu": 1.09, "va_deg": -13.611625322195243, "is_violation": true, "violation_type": "overvoltage"}, {"bus_id": 9, "vm_pu": 1.052922982079529, "va_deg": -15.267042057228396, "is_violation": true, "violation_type": "overvoltage"}, {"bus_id": 10, "vm_pu": 1.0479226822260563, "va_deg": -15.420648288276583, "is_violation": false, "violation_type": null}, {"bus_id": 11, "vm_pu": 1.0550390876059355, "va_deg": -15.05241451882856, "is_violation": true, "violation_type": "overvoltage"}, {"bus_id": 12, "vm_pu": 1.0555454925427143, "va_deg": -15.243081230306151, "is_violation": true, "violation_type": "overvoltage"}, {"bus_id": 13, "vm_pu": 1.0496273967605687, "va_deg": -15.362874244386077, "is_violation": false, "violation_type": null}, {"bus_id": 14, "vm_pu": 1.032703036368482, "va_deg": -16.354334350674353, "is_violation": false, "violation_type": null}], "line_flows": [{"line_id": 0, "from_bus": 1, "to_bus": 2, "p_from_mw": 156.94930714086956, "q_from_mvar": -20.419810294054884, "loading_percent": 1.508215050941287, "is_violation": false}, {"line_id": 1, "from_bus": 1, "to_bus": 5, "p_from_mw": 76.2119918501464, "q_from_mvar": 4.201461252147483, "loading_percent": 0.7281047793344911, "is_violation": false}, {"line_id": 2, "from_bus": 2, "to_bus": 3, "p_from_mw": 70.47332226723657, "q_from_mvar": 3.839207399920231, "loading_percent": 0.68329078418012, "is_violation": false}, {"line_id": 3, "from_bus": 2, "to_bus": 4, "p_from_mw": 57.34021167530933, "q_from_mvar": -1.057295243528021, "loading_percent": 0.5543469003134006, "is_violation": false}, {"line_id": 4, "from_bus": 2, "to_bus": 5, "p_from_mw": 42.42096130242674, "q_from_mvar": 1.455841186206314, "loading_percent": 0.41189843495881745, "is_violation": false}, {"line_id": 5, "from_bus": 3, "to_bus": 4, "p_from_mw": -19.291371364861693, "q_from_mvar": 3.527098275799335, "loading_percent": 0.19868179615535847, "is_violation": false}, {"line_id": 6, "from_bus": 4, "to_bus": 5, "p_from_mw": -62.41072961763096, "q_from_mvar": 15.153370188114943, "loading_percent": 0.6382982080547819, "is_violation": false}, {"line_id": 7, "from_bus": 6, "to_bus": 11, "p_from_mw": 8.39766849022113, "q_from_mvar": 4.074917047230282, "loading_percent": 0.08811591996736445, "is_violation": false}, {"line_id": 8, "from_bus": 6, "to_bus": 12, "p_from_mw": 7.649845580079773, "q_from_mvar": 2.418142216884214, "loading_percent": 0.07573811891421942, "is_violation": false}, {"line_id": 9, "from_bus": 6, "to_bus": 13, "p_from_mw": 18.30904850134481, "q_from_mvar": 7.557748093780159, "loading_percent": 0.18698758461421242, "is_violation": false}, {"line_id": 10, "from_bus": 9, "to_bus": 10, "p_from_mw": 5.122127154982536, "q_from_mvar": 4.307156463236658, "loading_percent": 0.0642019153796925, "is_violation": false}, {"line_id": 11, "from_bus": 9, "to_bus": 14, "p_from_mw": 9.309538603860295, "q_from_mvar": 3.569966214237868, "loading_percent": 0.09565066029045205, "is_violation": false}, {"line_id": 12, "from_bus": 10, "to_bus": 11, "p_from_mw": -4.52688421616194, "q_from_mvar": -1.9369505056608842, "loading_percent": 0.04746153763845944, "is_violation": false}, {"line_id": 13, "from_bus": 12, "to_bus": 13, "p_from_mw": 2.077107359127125, "q_from_mvar": 0.8307461148094119, "loading_percent": 0.02140764074441055, "is_violation": false}, {"line_id": 14, "from_bus": 13, "to_bus": 14, "p_from_mw": 6.380197696013841, "q_from_mvar": 2.017379505869958, "loading_percent": 0.06439555585311568, "is_violation": false}, {"line_id": 100000, "from_bus": 4, "to_bus": 7, "p_from_mw": 29.30125332892751, "q_from_mvar": -9.388374936709292, "loading_percent": 0.30579721890047584, "is_violation": false}, {"line_id": 100001, "from_bus": 4, "to_bus": 9, "p_from_mw": 16.770573704582837, "q_from_mvar": -0.057936101024906615, "loading_percent": 0.1666773934013531, "is_violation": false}, {"line_id": 100002, "from_bus": 5, "to_bus": 6, "p_from_mw": 44.844192434527, "q_from_mvar": 12.129456258997562, "loading_percent": 0.46066237816610767, "is_violation": false}, {"line_id": 100003, "from_bus": 7, "to_bus": 8, "p_from_mw": 7.992093133880064e-14, "q_from_mvar": -18.207431756232236, "loading_percent": 0.17354656559679169, "is_violation": false}, {"line_id": 100004, "from_bus": 7, "to_bus": 9, "p_from_mw": 29.301253328589898, "q_from_mvar": 6.9858530918487, "loading_percent": 0.2871167210132372, "is_violation": false}], "total_generation_mw": 272.44777596829215, "total_load_mw": 259.10068973759434, "total_loss_mw": 13.347086237468714, "voltage_violations": [{"bus_id": 1, "vm_pu": 1.06, "va_deg": 0.0, "is_violation": true, "violation_type": "overvoltage"}, {"bus_id": 6, "vm_pu": 1.0699999999999998, "va_deg": -14.401094340951042, "is_violation": true, "violation_type": "overvoltage"}, {"bus_id": 7, "vm_pu": 1.059735474745424, "va_deg": -13.61162532219524, "is_violation": true, "violation_type": "overvoltage"}, {"bus_id": 8, "vm_pu": 1.09, "va_deg": -13.611625322195243, "is_violation": true, "violation_type": "overvoltage"}, {"bus_id": 9, "vm_pu": 1.052922982079529, "va_deg": -15.267042057228396, "is_violation": true, "violation_type": "overvoltage"}, {"bus_id": 11, "vm_pu": 1.0550390876059355, "va_deg": -15.05241451882856, "is_violation": true, "violation_type": "overvoltage"}, {"bus_id": 12, "vm_pu": 1.0555454925427143, "va_deg": -15.243081230306151, "is_violation": true, "violation_type": "overvoltage"}], "thermal_violations": [], "summary_text": "", "solver_backend": "pandapower", "llm_prompt": null, "llm_response": null, "resolved_bus_id": 2, "assumption": "reactive load at this bus is unchanged from its present value"}

--- round 3 ---
[assistant final]   (3242 in / 253 out tokens, 4.0 s)
1. **Summary:** IEEE 14-bus case loaded, bus 2 active load set to **21.7 MW**, and the AC power flow converged successfully.

2. **Key numbers:**
   - Total load: **259.101 MW**
   - Total generation: **272.448 MW**
   - Total active-power losses: **13.347 MW**
   - Voltage range: **1.010–1.090 p.u.**

3. **Violations:**
   - Overvoltage at buses **1, 6, 7, 8, 9, 11, and 12**
   - Highest voltage: **1.090 p.u. at bus 8**
   - No thermal violations

4. **Suggested next step:** Review generator voltage setpoints or other voltage-control measures to reduce the reported overvoltages.
